<?xml version="1.0" encoding="UTF-8"?>

<!-- generated on 2025-11-17T20:12:26.624914+02:00 by Eclipse SUMO netedit 1.25.0
-->

<additional xmlns:xsi="http://www.w3.org/2001/XMLSchema-instance" xsi:noNamespaceSchemaLocation="http://sumo.dlr.de/xsd/additional_file.xsd">
    <!-- TAZs -->
    <taz id="taz_0" shape="-227.23,157.90 -130.18,114.44 -241.58,100.93 -224.70,157.47 -186.73,73.93 -247.91,134.27 -227.23,157.90" color="red">
        <tazSource id="E0" weight="1.00"/>
        <tazSink id="E0" weight="1.00"/>
    </taz>
</additional>
