<?xml version="1.0" encoding="UTF-8"?>

<!-- generated on 2025-11-27T19:23:43.840370+02:00 by Eclipse SUMO netedit 1.25.0
<neteditConfiguration xmlns:xsi="http://www.w3.org/2001/XMLSchema-instance" xsi:noNamespaceSchemaLocation="http://sumo.dlr.de/xsd/neteditConfiguration.xsd">

    <input>
        <sumocfg-file value="D:\0- ELZIZO\0-STUDY\1-Cap\HZ\traffic_project\4.sumocfg"/>
        <route-files value="D:\0- ELZIZO\0-STUDY\1-Cap\HZ\traffic_project\4.rou.xml"/>
        <sumo-net-file value="D:\0- ELZIZO\0-STUDY\1-Cap\HZ\traffic_project\4.net.xml"/>
    </input>

    <output>
        <tls-file value="D:\0- ELZIZO\0-STUDY\1-Cap\HZ\traffic_project\4.tll.xml"/>
        <output-file value="D:\0- ELZIZO\0-STUDY\1-Cap\HZ\traffic_project\4.net.xml"/>
    </output>

    <processing>
        <geometry.min-radius.fix.railways value="false"/>
        <geometry.avoid-overlap value="false"/>
        <geometry.max-grade.fix value="false"/>
        <offset.disable-normalization value="true"/>
        <lefthand value="0"/>
    </processing>

    <junctions>
        <no-turnarounds value="true"/>
        <junctions.corner-detail value="5"/>
        <junctions.limit-turn-speed value="5.50"/>
        <rectangular-lane-cut value="0"/>
    </junctions>

    <pedestrian>
        <walkingareas value="0"/>
    </pedestrian>

    <netedit>
        <new-network value="false"/>
        <ignore.additionalelements value="0"/>
        <ignore.routeelements value="0"/>
    </netedit>

</neteditConfiguration>
-->

<net version="1.20" junctionCornerDetail="5" limitTurnSpeed="5.50" avoidOverlap="0" xmlns:xsi="http://www.w3.org/2001/XMLSchema-instance" xsi:noNamespaceSchemaLocation="http://sumo.dlr.de/xsd/net_file.xsd">

    <location netOffset="0.00,0.00" convBoundary="-297.45,-217.62,135.83,104.21" origBoundary="-10000000000.00,-10000000000.00,10000000000.00,10000000000.00" projParameter="!"/>

    <edge id=":J1_0" function="internal">
        <lane id=":J1_0_0" index="0" speed="13.89" length="0.63" width="15.00" shape="-120.83,-89.70 -120.20,-89.66"/>
    </edge>
    <edge id=":J10_0" function="internal">
        <lane id=":J10_0_0" index="0" speed="13.89" length="0.10" width="15.00" shape="-103.09,-13.05,10.00 -103.08,-13.15,10.00"/>
    </edge>
    <edge id=":J11_0" function="internal">
        <lane id=":J11_0_0" index="0" speed="13.89" length="0.45" width="15.00" shape="-100.34,-82.38,0.06 -100.34,-82.82"/>
    </edge>
    <edge id=":J16_0" function="internal">
        <lane id=":J16_0_0" index="0" speed="13.89" length="0.30" width="15.00" shape="-71.38,-128.49 -71.39,-128.19,0.05"/>
    </edge>
    <edge id=":J18_0" function="internal">
        <lane id=":J18_0_0" index="0" speed="8.47" length="11.17" width="15.00" shape="-54.07,-117.26 -53.54,-114.29 -52.20,-112.10 -50.06,-110.69 -47.11,-110.06"/>
    </edge>
    <edge id=":J2_0" function="internal">
        <lane id=":J2_0_0" index="0" speed="13.89" length="0.30" width="15.00" shape="-59.26,-15.62 -59.56,-15.63"/>
    </edge>
    <edge id=":J20_0" function="internal">
        <lane id=":J20_0_0" index="0" speed="13.89" length="0.25" width="15.00" shape="-72.61,-95.10,9.93 -72.61,-94.86,9.97"/>
    </edge>
    <edge id=":J21_0" function="internal">
        <lane id=":J21_0_0" index="0" speed="13.89" length="0.10" width="15.00" shape="-72.87,-23.24 -72.87,-23.15"/>
    </edge>
    <edge id=":J26_0" function="internal">
        <lane id=":J26_0_0" index="0" speed="8.52" length="9.97" width="15.00" shape="-133.66,-111.05 -131.02,-111.35 -128.91,-112.35 -127.33,-114.07 -126.28,-116.50"/>
    </edge>
    <edge id=":J41_0" function="internal">
        <lane id=":J41_0_0" index="0" speed="8.48" length="11.04" width="15.00" shape="-47.93,3.39 -50.88,3.82 -53.09,5.07 -54.57,7.14 -55.32,10.03"/>
    </edge>
    <edge id=":J6_0" function="internal">
        <lane id=":J6_0_0" index="0" speed="13.89" length="0.22" width="15.00" shape="-104.03,21.37 -104.02,21.16,0.08"/>
    </edge>
    <edge id=":J8_0" function="internal">
        <lane id=":J8_0_0" index="0" speed="8.46" length="11.74" width="15.00" shape="-121.53,6.84 -121.99,3.68 -123.35,1.38 -125.61,-0.06 -128.76,-0.62"/>
    </edge>
    <edge id=":clusterJ12_J27_J28_0" function="internal">
        <lane id=":clusterJ12_J27_J28_0_0" index="0" speed="13.89" length="9.55" width="30.00" shape="-101.56,-146.80 -108.77,-153.07"/>
    </edge>
    <edge id=":clusterJ12_J27_J28_1" function="internal">
        <lane id=":clusterJ12_J27_J28_1_0" index="0" speed="13.89" length="9.28" width="30.00" shape="-117.07,-148.92 -108.77,-153.07"/>
    </edge>
    <edge id=":clusterJ14_J15_J17_0" function="internal">
        <lane id=":clusterJ14_J15_J17_0_0" index="0" speed="13.89" length="8.68" width="15.00" shape="-63.80,-159.37 -55.55,-156.66"/>
    </edge>
    <edge id=":clusterJ14_J15_J17_1" function="internal">
        <lane id=":clusterJ14_J15_J17_1_0" index="0" speed="13.89" length="7.28" width="15.00" shape="-63.80,-159.37 -70.30,-156.11"/>
    </edge>
    <edge id=":clusterJ19_J24_J34_0" function="internal">
        <lane id=":clusterJ19_J24_J34_0_0" index="0" speed="13.89" length="8.84" width="30.00" shape="92.28,-100.22 95.10,-91.84"/>
    </edge>
    <edge id=":clusterJ19_J24_J34_1" function="internal">
        <lane id=":clusterJ19_J24_J34_1_0" index="0" speed="13.89" length="7.58" width="30.00" shape="91.94,-84.94 95.10,-91.84"/>
    </edge>
    <edge id=":clusterJ22_J42_J45_0" function="internal">
        <lane id=":clusterJ22_J42_J45_0_0" index="0" speed="13.89" length="8.44" width="30.00" shape="-60.34,53.67 -67.92,57.39"/>
    </edge>
    <edge id=":clusterJ22_J42_J45_1" function="internal">
        <lane id=":clusterJ22_J42_J45_1_0" index="0" speed="13.89" length="5.37" width="30.00" shape="-74.11,53.45 -71.08,52.11 -69.04,52.32"/>
    </edge>
    <edge id=":clusterJ22_J42_J45_2" function="internal">
        <lane id=":clusterJ22_J42_J45_2_0" index="0" speed="13.89" length="5.37" width="30.00" shape="-69.04,52.32 -67.99,54.08 -67.92,57.39"/>
    </edge>
    <edge id=":clusterJ23_J25_J31_0" function="internal">
        <lane id=":clusterJ23_J25_J31_0_0" index="0" speed="13.89" length="9.03" width="15.00" shape="-217.83,-105.85 -214.49,-114.24"/>
    </edge>
    <edge id=":clusterJ23_J25_J31_1" function="internal">
        <lane id=":clusterJ23_J25_J31_1_0" index="0" speed="13.89" length="6.60" width="15.00" shape="-217.83,-105.85 -215.15,-99.82"/>
    </edge>
    <edge id=":clusterJ36_J40_J44_0" function="internal">
        <lane id=":clusterJ36_J40_J44_0_0" index="0" speed="13.89" length="7.79" width="15.00" shape="41.46,-4.53 38.43,2.65"/>
    </edge>
    <edge id=":clusterJ36_J40_J44_1" function="internal">
        <lane id=":clusterJ36_J40_J44_1_0" index="0" speed="13.89" length="9.64" width="15.00" shape="41.46,-4.53 38.29,-13.63"/>
    </edge>
    <edge id=":clusterJ37_J38_J9_0" function="internal">
        <lane id=":clusterJ37_J38_J9_0_0" index="0" speed="13.89" length="7.19" width="30.00" shape="-262.16,-5.51 -264.98,-12.13"/>
    </edge>
    <edge id=":clusterJ37_J38_J9_1" function="internal">
        <lane id=":clusterJ37_J38_J9_1_0" index="0" speed="13.89" length="8.70" width="30.00" shape="-261.82,-20.23 -264.98,-12.13"/>
    </edge>
    <edge id=":clusterJ4_J5_J7_0" function="internal">
        <lane id=":clusterJ4_J5_J7_0_0" index="0" speed="13.89" length="7.26" width="15.00" shape="-114.70,61.47 -121.32,58.50"/>
    </edge>
    <edge id=":clusterJ4_J5_J7_1" function="internal">
        <lane id=":clusterJ4_J5_J7_1_0" index="0" speed="13.89" length="8.62" width="15.00" shape="-114.70,61.47 -106.63,58.45"/>
    </edge>

    <edge id="E0" from="J3" to="clusterJ4_J5_J7" priority="-1" shape="-100.85,103.94 -99.61,58.46">
        <lane id="E0_0" index="0" speed="13.89" length="42.07" width="30.00" shape="-115.84,103.53 -114.70,61.47"/>
    </edge>
    <edge id="E1" from="clusterJ4_J5_J7" to="J6" priority="-1" shape="-99.27,60.76 -96.53,21.63">
        <lane id="E1_0" index="0" speed="13.89" length="37.17" width="15.00" shape="-106.63,58.45 -104.03,21.37"/>
    </edge>
    <edge id="E10" from="J18" to="clusterJ19_J24_J34" priority="-1" shape="-61.06,-103.53 95.24,-92.49">
        <lane id="E10_0" index="0" speed="13.89" length="139.73" width="15.00" shape="-47.11,-110.06 92.28,-100.22"/>
    </edge>
    <edge id="E11" from="J16" to="J20" priority="-1">
        <lane id="E11_0" index="0" speed="13.89" length="34.55" width="15.00" shape="-71.39,-128.19,0.05 -72.61,-95.10,9.93"/>
    </edge>
    <edge id="E12" from="J20" to="J21" priority="-1">
        <lane id="E12_0" index="0" speed="13.89" length="72.30" width="15.00" shape="-72.61,-94.86,9.97 -72.87,-23.24"/>
    </edge>
    <edge id="E13" from="J21" to="clusterJ22_J42_J45" priority="-1" shape="-80.37,-23.27 -84.16,75.05 -81.66,56.25">
        <lane id="E13_0" index="0" speed="13.89" length="76.61" width="15.00" shape="-72.87,-23.15 -74.11,53.45"/>
    </edge>
    <edge id="E15" from="clusterJ23_J25_J31" to="J26" priority="-1" shape="-218.01,-106.89 -156.31,-104.05 -122.23,-103.30">
        <lane id="E15_0" index="0" speed="13.89" length="80.90" width="15.00" shape="-214.49,-114.24 -156.06,-111.55 -133.66,-111.05"/>
    </edge>
    <edge id="E16" from="J26" to="clusterJ12_J27_J28" priority="-1" shape="-122.23,-103.30 -107.76,-154.24">
        <lane id="E16_0" index="0" speed="13.89" length="33.70" width="15.00" shape="-126.28,-116.50 -117.07,-148.92"/>
    </edge>
    <edge id="E17" from="clusterJ12_J27_J28" to="J29" priority="-1" shape="-93.82,-151.87 -88.54,-217.62">
        <lane id="E17_0" index="0" speed="13.89" length="65.96" width="30.00" shape="-108.77,-153.07 -103.49,-218.82"/>
    </edge>
    <edge id="E18" from="J30" to="clusterJ23_J25_J31" priority="-1" shape="-295.87,-93.33 -215.25,-90.76">
        <lane id="E18_0" index="0" speed="13.89" length="77.60" width="30.00" shape="-295.39,-108.32 -217.83,-105.85"/>
    </edge>
    <edge id="E19" from="clusterJ19_J24_J34" to="J35" priority="-1" shape="93.06,-76.89 135.83,-75.61">
        <lane id="E19_0" index="0" speed="13.89" length="41.20" width="30.00" shape="95.10,-91.84 136.28,-90.60"/>
    </edge>
    <edge id="E2" from="clusterJ4_J5_J7" to="J8" priority="-1" shape="-113.81,61.98 -114.09,-7.59">
        <lane id="E2_0" index="0" speed="13.89" length="51.66" width="15.00" shape="-121.32,58.50 -121.53,6.84"/>
    </edge>
    <edge id="E21" from="clusterJ37_J38_J9" to="J39" priority="-1" shape="-262.44,-27.01 -297.45,-28.96">
        <lane id="E21_0" index="0" speed="13.89" length="33.36" width="30.00" shape="-264.98,-12.13 -298.28,-13.98"/>
    </edge>
    <edge id="E22" from="clusterJ36_J40_J44" to="J41" priority="-1" shape="29.66,-4.78 -61.25,-4.00">
        <lane id="E22_0" index="0" speed="13.89" length="86.36" width="15.00" shape="38.43,2.65 -47.93,3.39"/>
    </edge>
    <edge id="E23" from="J41" to="clusterJ22_J42_J45" priority="-1" shape="-61.25,-4.00 -68.29,57.11">
        <lane id="E23_0" index="0" speed="13.89" length="43.93" width="15.00" shape="-55.32,10.03 -60.34,53.67"/>
    </edge>
    <edge id="E24" from="J43" to="clusterJ36_J40_J44" priority="-1" shape="127.98,-20.38 25.77,-19.38">
        <lane id="E24_0" index="0" speed="13.89" length="86.67" width="30.00" shape="128.13,-5.38 41.46,-4.53"/>
    </edge>
    <edge id="E25" from="clusterJ22_J42_J45" to="J46" priority="-1" shape="-82.81,54.22 -84.63,104.21">
        <lane id="E25_0" index="0" speed="13.89" length="47.39" width="30.00" shape="-67.92,57.39 -69.64,104.76"/>
    </edge>
    <edge id="E28" from="clusterJ23_J25_J31" to="J1" priority="-1">
        <lane id="E28_0" index="0" speed="13.89" length="94.86" width="15.00" shape="-215.15,-99.82 -120.83,-89.70"/>
    </edge>
    <edge id="E29" from="J1" to="clusterJ19_J24_J34" priority="-1">
        <lane id="E29_0" index="0" speed="13.89" length="212.19" width="15.00" shape="-120.20,-89.66 91.94,-84.94"/>
    </edge>
    <edge id="E3" from="J8" to="clusterJ37_J38_J9" priority="-1" shape="-114.09,-7.59 -263.83,-13.08">
        <lane id="E3_0" index="0" speed="13.89" length="133.49" width="15.00" shape="-128.76,-0.62 -262.16,-5.51"/>
    </edge>
    <edge id="E30" from="clusterJ36_J40_J44" to="J2" priority="-1">
        <lane id="E30_0" index="0" speed="13.89" length="97.57" width="15.00" shape="38.29,-13.63 -59.26,-15.62"/>
    </edge>
    <edge id="E31" from="J2" to="clusterJ37_J38_J9" priority="-1">
        <lane id="E31_0" index="0" speed="13.89" length="202.31" width="15.00" shape="-59.56,-15.63 -261.82,-20.23"/>
    </edge>
    <edge id="E4" from="J6" to="J10" priority="-1">
        <lane id="E4_0" index="0" speed="13.89" length="35.64" width="15.00" shape="-104.02,21.16,0.08 -103.09,-13.05,10.00"/>
    </edge>
    <edge id="E5" from="J10" to="J11" priority="-1">
        <lane id="E5_0" index="0" speed="13.89" length="69.99" width="15.00" shape="-103.08,-13.15,10.00 -100.34,-82.38,0.06"/>
    </edge>
    <edge id="E6" from="J11" to="clusterJ12_J27_J28" priority="-1" shape="-92.83,-82.52 -94.19,-153.41">
        <lane id="E6_0" index="0" speed="13.89" length="64.00" width="15.00" shape="-100.34,-82.82 -101.56,-146.80"/>
    </edge>
    <edge id="E7" from="J13" to="clusterJ14_J15_J17" priority="-1" shape="-79.22,-216.91 -78.76,-154.54">
        <lane id="E7_0" index="0" speed="13.89" length="57.65" width="30.00" shape="-64.22,-217.02 -63.80,-159.37"/>
    </edge>
    <edge id="E8" from="clusterJ14_J15_J17" to="J16" priority="-1" shape="-77.84,-155.23 -78.88,-128.62">
        <lane id="E8_0" index="0" speed="13.89" length="27.65" width="15.00" shape="-70.30,-156.11 -71.38,-128.49"/>
    </edge>
    <edge id="E9" from="clusterJ14_J15_J17" to="J18" priority="-1" shape="-63.23,-161.17 -61.06,-103.53">
        <lane id="E9_0" index="0" speed="13.89" length="39.43" width="15.00" shape="-55.55,-156.66 -54.07,-117.26"/>
    </edge>

    <tlLogic id="J16" type="actuated" programID="0" offset="0">
        <phase duration="30" state="G" minDur="25" maxDur="35"/>
        <phase duration="5"  state="y" minDur="5" maxDur="5"/>
        <phase duration="15" state="r" minDur="10" maxDur="20"/>
        <phase duration="5"  state="y" minDur="5" maxDur="5"/>
    </tlLogic>
    <tlLogic id="J18" type="actuated" programID="0" offset="0">
        <phase duration="30" state="G" minDur="25" maxDur="35"/>
        <phase duration="5"  state="y" minDur="5" maxDur="5"/>
        <phase duration="15" state="r" minDur="10" maxDur="20"/>
        <phase duration="5"  state="y" minDur="5" maxDur="5"/>
    </tlLogic>
    <tlLogic id="J26" type="actuated" programID="0" offset="0">
        <phase duration="30" state="G" minDur="25" maxDur="35"/>
        <phase duration="5"  state="y" minDur="5" maxDur="5"/>
        <phase duration="15" state="r" minDur="10" maxDur="20"/>
        <phase duration="5"  state="y" minDur="5" maxDur="5"/>
    </tlLogic>
    <tlLogic id="J41" type="actuated" programID="0" offset="0">
        <phase duration="30" state="G" minDur="25" maxDur="35"/>
        <phase duration="5"  state="y" minDur="5" maxDur="5"/>
        <phase duration="15" state="r" minDur="10" maxDur="20"/>
        <phase duration="5"  state="y" minDur="5" maxDur="5"/>
    </tlLogic>
    <tlLogic id="J6" type="actuated" programID="0" offset="0">
        <phase duration="30" state="G" minDur="25" maxDur="35"/>
        <phase duration="5"  state="y" minDur="5" maxDur="5"/>
        <phase duration="15" state="r" minDur="10" maxDur="20"/>
        <phase duration="5"  state="y" minDur="5" maxDur="5"/>
    </tlLogic>
    <tlLogic id="J8" type="actuated" programID="0" offset="0">
        <phase duration="30" state="G" minDur="25" maxDur="35"/>
        <phase duration="5"  state="y" minDur="5" maxDur="5"/>
        <phase duration="15" state="r" minDur="10" maxDur="20"/>
        <phase duration="5"  state="y" minDur="5" maxDur="5"/>
    </tlLogic>

    <junction id="J1" type="priority" x="-121.00" y="-82.18" incLanes="E28_0" intLanes=":J1_0_0" shape="-120.37,-82.17 -120.03,-97.16 -121.63,-82.25">
        <request index="0" response="0" foes="0" cont="0"/>
    </junction>
    <junction id="J10" type="priority" x="-95.59" y="-12.85" z="10.00" incLanes="E4_0" intLanes=":J10_0_0" shape="-95.59,-12.95,10.00 -110.57,-13.54,10.00 -110.59,-13.16,10.00 -95.59,-12.75,10.00">
        <request index="0" response="0" foes="0" cont="0"/>
    </junction>
    <junction id="J11" type="priority" x="-92.83" y="-82.52" incLanes="E5_0" intLanes=":J11_0_0" shape="-92.84,-82.96 -107.84,-82.67 -92.85,-82.08">
        <request index="0" response="0" foes="0" cont="0"/>
    </junction>
    <junction id="J13" type="dead_end" x="-79.22" y="-216.91" incLanes="" intLanes="" shape="-79.22,-216.91 -49.22,-217.13"/>
    <junction id="J16" type="traffic_light" x="-78.88" y="-128.62" incLanes="E8_0" intLanes=":J16_0_0" shape="-63.89,-128.19 -78.87,-128.78 -78.89,-128.46 -63.90,-127.91">
        <request index="0" response="0" foes="0" cont="0"/>
    </junction>
    <junction id="J18" type="traffic_light" x="-61.06" y="-103.53" incLanes="E9_0" intLanes=":J18_0_0" shape="-47.63,-102.58 -46.58,-117.54 -61.57,-116.98 -61.04,-112.84 -59.79,-109.40 -57.83,-106.66 -55.15,-104.60 -51.75,-103.25">
        <request index="0" response="0" foes="0" cont="0"/>
    </junction>
    <junction id="J2" type="priority" x="-59.25" y="-23.12" incLanes="E30_0" intLanes=":J2_0_0" shape="-59.41,-8.12 -59.11,-23.12 -59.39,-23.12 -59.73,-8.13">
        <request index="0" response="0" foes="0" cont="0"/>
    </junction>
    <junction id="J20" type="priority" x="-80.11" y="-95.13" z="10.00" incLanes="E11_0" intLanes=":J20_0_0" shape="-65.11,-94.83,10.00 -80.10,-95.38,10.00 -80.11,-94.88,10.00 -65.11,-94.83,10.00">
        <request index="0" response="0" foes="0" cont="0"/>
    </junction>
    <junction id="J21" type="priority" x="-80.37" y="-23.27" incLanes="E12_0" intLanes=":J21_0_0" shape="-65.37,-23.31 -80.37,-23.37 -80.37,-23.17 -65.37,-22.93">
        <request index="0" response="0" foes="0" cont="0"/>
    </junction>
    <junction id="J26" type="traffic_light" x="-122.23" y="-103.30" incLanes="E15_0" intLanes=":J26_0_0" shape="-119.06,-114.45 -133.49,-118.55 -133.82,-103.56 -130.19,-103.79 -127.03,-104.65 -124.34,-106.15 -122.11,-108.29 -120.35,-111.05">
        <request index="0" response="0" foes="0" cont="0"/>
    </junction>
    <junction id="J29" type="dead_end" x="-88.54" y="-217.62" incLanes="E17_0" intLanes="" shape="-118.44,-220.02 -88.54,-217.62"/>
    <junction id="J3" type="dead_end" x="-100.85" y="103.94" incLanes="" intLanes="" shape="-100.85,103.94 -130.84,103.12"/>
    <junction id="J30" type="dead_end" x="-295.87" y="-93.33" incLanes="" intLanes="" shape="-295.87,-93.33 -294.91,-123.31"/>
    <junction id="J35" type="dead_end" x="135.83" y="-75.61" incLanes="E19_0" intLanes="" shape="136.73,-105.60 135.83,-75.61"/>
    <junction id="J39" type="dead_end" x="-297.45" y="-28.96" incLanes="E21_0" intLanes="" shape="-299.12,0.99 -297.45,-28.96"/>
    <junction id="J41" type="traffic_light" x="-61.25" y="-4.00" incLanes="E22_0" intLanes=":J41_0_0" shape="-47.87,10.89 -47.99,-4.11 -52.09,-3.71 -55.53,-2.59 -58.32,-0.74 -60.45,1.84 -61.94,5.14 -62.77,9.17">
        <request index="0" response="0" foes="0" cont="0"/>
    </junction>
    <junction id="J43" type="dead_end" x="127.98" y="-20.38" incLanes="" intLanes="" shape="127.98,-20.38 128.27,9.62"/>
    <junction id="J46" type="dead_end" x="-84.63" y="104.21" incLanes="E25_0" intLanes="" shape="-54.65,105.30 -84.63,104.21"/>
    <junction id="J6" type="traffic_light" x="-96.53" y="21.63" incLanes="E1_0" intLanes=":J6_0_0" shape="-96.52,21.37 -111.52,20.96 -111.51,20.85 -96.55,21.89">
        <request index="0" response="0" foes="0" cont="0"/>
    </junction>
    <junction id="J8" type="traffic_light" x="-114.09" y="-7.59" incLanes="E2_0" intLanes=":J8_0_0" shape="-129.03,6.87 -114.03,6.81 -114.45,2.40 -115.66,-1.25 -117.67,-4.12 -120.48,-6.22 -124.08,-7.56 -128.48,-8.12">
        <request index="0" response="0" foes="0" cont="0"/>
    </junction>
    <junction id="clusterJ12_J27_J28" type="priority" x="-103.60" y="-156.59" incLanes="E6_0 E16_0" intLanes=":clusterJ12_J27_J28_0_0 :clusterJ12_J27_J28_1_0" shape="-109.06,-146.66 -94.07,-146.95 -94.07,-148.77 -94.03,-149.41 -93.98,-150.05 -93.91,-150.82 -93.82,-151.87 -123.72,-154.27 -123.83,-153.03 -123.88,-152.60 -123.96,-152.17 -124.09,-151.66 -124.28,-150.97 -109.85,-146.87">
        <request index="0" response="10" foes="10" cont="0"/>
        <request index="1" response="00" foes="01" cont="0"/>
    </junction>
    <junction id="clusterJ14_J15_J17" type="traffic_light" x="-63.41" y="-157.59" incLanes="E7_0" intLanes=":clusterJ14_J15_J17_0_0 :clusterJ14_J15_J17_1_0" shape="-77.82,-155.83 -48.06,-156.94 -48.27,-157.89 -48.44,-158.21 -48.61,-158.53 -48.74,-158.93 -48.80,-159.48 -78.79,-159.26 -78.52,-157.98 -78.27,-157.55 -78.04,-157.12 -77.86,-156.58">
        <request index="0" response="00" foes="00" cont="0"/>
        <request index="1" response="00" foes="00" cont="0"/>
    </junction>
    <junction id="clusterJ19_J24_J34" type="priority" x="93.41" y="-77.41" incLanes="E10_0 E29_0" intLanes=":clusterJ19_J24_J34_0_0 :clusterJ19_J24_J34_1_0" shape="94.65,-76.84 95.54,-106.83 94.38,-107.06 93.99,-107.25 93.61,-107.45 93.12,-107.62 92.45,-107.72 91.77,-77.45 92.84,-77.29 93.58,-77.01 94.03,-76.90">
        <request index="0" response="00" foes="10" cont="0"/>
        <request index="1" response="01" foes="01" cont="0"/>
    </junction>
    <junction id="clusterJ22_J42_J45" type="priority" x="-72.72" y="56.77" incLanes="E23_0 E13_0" intLanes=":clusterJ22_J42_J45_0_0 :clusterJ22_J42_J45_2_0" shape="-52.81,53.79 -81.61,53.33 -81.95,54.66 -82.24,55.09 -82.55,55.52 -82.79,56.07 -82.91,56.85 -52.93,57.94">
        <request index="0" response="00" foes="10" cont="0"/>
        <request index="1" response="01" foes="01" cont="1"/>
    </junction>
    <junction id="clusterJ23_J25_J31" type="priority" x="-217.80" y="-92.56" incLanes="E18_0" intLanes=":clusterJ23_J25_J31_0_0 :clusterJ23_J25_J31_1_0" shape="-215.50,-92.31 -214.14,-121.73 -215.34,-121.52 -216.15,-121.07 -216.65,-120.89 -217.35,-120.84 -218.31,-90.86">
        <request index="0" response="00" foes="00" cont="0"/>
        <request index="1" response="00" foes="00" cont="0"/>
    </junction>
    <junction id="clusterJ36_J40_J44" type="priority" x="54.34" y="-20.81" incLanes="E24_0" intLanes=":clusterJ36_J40_J44_0_0 :clusterJ36_J40_J44_1_0" shape="41.61,10.47 41.32,-19.53 40.13,-19.93 39.77,-20.32 39.41,-20.70 38.94,-21.01 38.22,-21.14 38.49,10.14 39.65,10.23 40.45,10.39 40.94,10.45">
        <request index="0" response="00" foes="00" cont="0"/>
        <request index="1" response="00" foes="00" cont="0"/>
    </junction>
    <junction id="clusterJ37_J38_J9" type="priority" x="-263.34" y="-27.77" incLanes="E3_0 E31_0" intLanes=":clusterJ37_J38_J9_0_0 :clusterJ37_J38_J9_1_0" shape="-262.33,1.99 -261.65,-27.73 -262.59,-27.57 -262.90,-27.40 -263.21,-27.24 -263.60,-27.13 -264.15,-27.11 -265.81,2.85 -264.51,2.65 -264.07,2.43 -263.63,2.20 -263.09,2.03">
        <request index="0" response="00" foes="10" cont="0"/>
        <request index="1" response="01" foes="01" cont="0"/>
    </junction>
    <junction id="clusterJ4_J5_J7" type="priority" x="-114.06" y="53.53" incLanes="E0_0" intLanes=":clusterJ4_J5_J7_0_0 :clusterJ4_J5_J7_1_0" shape="-99.11,58.42 -128.82,58.53 -129.04,59.48 -129.24,59.80 -129.45,60.11 -129.61,60.50 -129.69,61.06 -99.70,61.88 -99.55,60.59 -99.43,60.15 -99.30,59.71 -99.19,59.16">
        <request index="0" response="00" foes="00" cont="0"/>
        <request index="1" response="00" foes="00" cont="0"/>
    </junction>

    <junction id=":clusterJ22_J42_J45_2_0" type="internal" x="-69.04" y="52.32" incLanes=":clusterJ22_J42_J45_1_0 E23_0" intLanes=":clusterJ22_J42_J45_0_0"/>

    <connection from="E0" to="E2" fromLane="0" toLane="0" via=":clusterJ4_J5_J7_0_0" dir="s" state="M"/>
    <connection from="E0" to="E1" fromLane="0" toLane="0" via=":clusterJ4_J5_J7_1_0" dir="s" state="M"/>
    <connection from="E1" to="E4" fromLane="0" toLane="0" via=":J6_0_0" tl="J6" linkIndex="0" dir="s" state="O"/>
    <connection from="E10" to="E19" fromLane="0" toLane="0" via=":clusterJ19_J24_J34_0_0" dir="s" state="M"/>
    <connection from="E11" to="E12" fromLane="0" toLane="0" via=":J20_0_0" dir="s" state="M"/>
    <connection from="E12" to="E13" fromLane="0" toLane="0" via=":J21_0_0" dir="s" state="M"/>
    <connection from="E13" to="E25" fromLane="0" toLane="0" via=":clusterJ22_J42_J45_1_0" dir="t" state="m"/>
    <connection from="E15" to="E16" fromLane="0" toLane="0" via=":J26_0_0" tl="J26" linkIndex="0" dir="r" state="O"/>
    <connection from="E16" to="E17" fromLane="0" toLane="0" via=":clusterJ12_J27_J28_1_0" dir="s" state="M"/>
    <connection from="E18" to="E15" fromLane="0" toLane="0" via=":clusterJ23_J25_J31_0_0" dir="s" state="M"/>
    <connection from="E18" to="E28" fromLane="0" toLane="0" via=":clusterJ23_J25_J31_1_0" dir="s" state="M"/>
    <connection from="E2" to="E3" fromLane="0" toLane="0" via=":J8_0_0" tl="J8" linkIndex="0" dir="r" state="O"/>
    <connection from="E22" to="E23" fromLane="0" toLane="0" via=":J41_0_0" tl="J41" linkIndex="0" dir="r" state="O"/>
    <connection from="E23" to="E25" fromLane="0" toLane="0" via=":clusterJ22_J42_J45_0_0" dir="s" state="M"/>
    <connection from="E24" to="E22" fromLane="0" toLane="0" via=":clusterJ36_J40_J44_0_0" dir="s" state="M"/>
    <connection from="E24" to="E30" fromLane="0" toLane="0" via=":clusterJ36_J40_J44_1_0" dir="s" state="M"/>
    <connection from="E28" to="E29" fromLane="0" toLane="0" via=":J1_0_0" dir="s" state="M"/>
    <connection from="E29" to="E19" fromLane="0" toLane="0" via=":clusterJ19_J24_J34_1_0" dir="s" state="m"/>
    <connection from="E3" to="E21" fromLane="0" toLane="0" via=":clusterJ37_J38_J9_0_0" dir="s" state="M"/>
    <connection from="E30" to="E31" fromLane="0" toLane="0" via=":J2_0_0" dir="s" state="M"/>
    <connection from="E31" to="E21" fromLane="0" toLane="0" via=":clusterJ37_J38_J9_1_0" dir="s" state="m"/>
    <connection from="E4" to="E5" fromLane="0" toLane="0" via=":J10_0_0" dir="s" state="M"/>
    <connection from="E5" to="E6" fromLane="0" toLane="0" via=":J11_0_0" dir="s" state="M"/>
    <connection from="E6" to="E17" fromLane="0" toLane="0" via=":clusterJ12_J27_J28_0_0" dir="s" state="m"/>
    <connection from="E7" to="E9" fromLane="0" toLane="0" uncontrolled="1" via=":clusterJ14_J15_J17_0_0" dir="s" state="M"/>
    <connection from="E7" to="E8" fromLane="0" toLane="0" uncontrolled="1" via=":clusterJ14_J15_J17_1_0" dir="s" state="M"/>
    <connection from="E8" to="E11" fromLane="0" toLane="0" via=":J16_0_0" tl="J16" linkIndex="0" dir="s" state="O"/>
    <connection from="E9" to="E10" fromLane="0" toLane="0" via=":J18_0_0" tl="J18" linkIndex="0" dir="r" state="O"/>

    <connection from=":J1_0" to="E29" fromLane="0" toLane="0" dir="s" state="M"/>
    <connection from=":J10_0" to="E5" fromLane="0" toLane="0" dir="s" state="M"/>
    <connection from=":J11_0" to="E6" fromLane="0" toLane="0" dir="s" state="M"/>
    <connection from=":J16_0" to="E11" fromLane="0" toLane="0" dir="s" state="M"/>
    <connection from=":J18_0" to="E10" fromLane="0" toLane="0" dir="r" state="M"/>
    <connection from=":J2_0" to="E31" fromLane="0" toLane="0" dir="s" state="M"/>
    <connection from=":J20_0" to="E12" fromLane="0" toLane="0" dir="s" state="M"/>
    <connection from=":J21_0" to="E13" fromLane="0" toLane="0" dir="s" state="M"/>
    <connection from=":J26_0" to="E16" fromLane="0" toLane="0" dir="r" state="M"/>
    <connection from=":J41_0" to="E23" fromLane="0" toLane="0" dir="r" state="M"/>
    <connection from=":J6_0" to="E4" fromLane="0" toLane="0" dir="s" state="M"/>
    <connection from=":J8_0" to="E3" fromLane="0" toLane="0" dir="r" state="M"/>
    <connection from=":clusterJ12_J27_J28_0" to="E17" fromLane="0" toLane="0" dir="s" state="M"/>
    <connection from=":clusterJ12_J27_J28_1" to="E17" fromLane="0" toLane="0" dir="s" state="M"/>
    <connection from=":clusterJ14_J15_J17_0" to="E9" fromLane="0" toLane="0" dir="s" state="M"/>
    <connection from=":clusterJ14_J15_J17_1" to="E8" fromLane="0" toLane="0" dir="s" state="M"/>
    <connection from=":clusterJ19_J24_J34_0" to="E19" fromLane="0" toLane="0" dir="s" state="M"/>
    <connection from=":clusterJ19_J24_J34_1" to="E19" fromLane="0" toLane="0" dir="s" state="M"/>
    <connection from=":clusterJ22_J42_J45_0" to="E25" fromLane="0" toLane="0" dir="s" state="M"/>
    <connection from=":clusterJ22_J42_J45_1" to="E25" fromLane="0" toLane="0" via=":clusterJ22_J42_J45_2_0" dir="t" state="m"/>
    <connection from=":clusterJ22_J42_J45_2" to="E25" fromLane="0" toLane="0" dir="t" state="M"/>
    <connection from=":clusterJ23_J25_J31_0" to="E15" fromLane="0" toLane="0" dir="s" state="M"/>
    <connection from=":clusterJ23_J25_J31_1" to="E28" fromLane="0" toLane="0" dir="s" state="M"/>
    <connection from=":clusterJ36_J40_J44_0" to="E22" fromLane="0" toLane="0" dir="s" state="M"/>
    <connection from=":clusterJ36_J40_J44_1" to="E30" fromLane="0" toLane="0" dir="s" state="M"/>
    <connection from=":clusterJ37_J38_J9_0" to="E21" fromLane="0" toLane="0" dir="s" state="M"/>
    <connection from=":clusterJ37_J38_J9_1" to="E21" fromLane="0" toLane="0" dir="s" state="M"/>
    <connection from=":clusterJ4_J5_J7_0" to="E2" fromLane="0" toLane="0" dir="s" state="M"/>