<?xml version="1.0" encoding="UTF-8"?>

<!-- generated on 2025-11-25T22:48:35.793473+02:00 by Eclipse SUMO netedit 1.25.0
-->

<routes xmlns:xsi="http://www.w3.org/2001/XMLSchema-instance" xsi:noNamespaceSchemaLocation="http://sumo.dlr.de/xsd/routes_file.xsd">
    <!-- Vehicles, persons and containers (sorted by depart) -->
    <flow id="f_0" begin="0.00" end="20000.00" probability="0.05999999999999999778" from="E0" to="E17" via="E1 E4 E5 E6"/>
    <flow id="f_1" begin="0.00" end="20000.00" probability="0.05000000000000000278" departPosLat="left" arrivalPosLat="left" from="E0" to="E17" via="E1 E4 E5 E6"/>
    <flow id="f_2" begin="0.00" end="20000.00" probability="0.07000000000000000666" departPosLat="left" from="E0" to="E17" via="E1 E4 E5 E6"/>
    <flow id="f_19" begin="0.02" end="20000.00" period="exp(0.05000000000000000278)" departPosLat="left" from="E0" to="E17" via="E1 E4 E5 E6"/>
    <flow id="f_20" begin="0.02" end="20000.00" period="exp(0.02000000000000000042)" from="E18" to="E17" via="E15 E16"/>
    <flow id="f_21" begin="0.02" end="20000.00" period="exp(0.02999999999999999889)" departPosLat="right" arrivalPosLat="right" from="E18" to="E17" via="E15 E16"/>
    <flow id="f_22" begin="0.02" end="20000.00" period="exp(0.01000000000000000021)" departPosLat="right" from="E18" to="E17" via="E15 E16"/>
    <flow id="f_23" begin="0.02" end="20000.00" period="exp(0.02000000000000000042)" arrivalPosLat="right" from="E18" to="E17" via="E15 E16"/>
    <flow id="f_24" begin="0.02" end="20000.00" period="exp(0.02999999999999999889)" arrivalPosLat="left" from="E7" to="E25" via="E8 E11 E12 E13"/>
    <flow id="f_25" begin="0.02" end="20000.00" period="exp(0.02000000000000000042)" from="E7" to="E25" via="E8 E11 E12 E13"/>
    <flow id="f_26" begin="0.02" end="20000.00" period="exp(0.02000000000000000042)" departPosLat="left" from="E7" to="E25" via="E8 E11 E12 E13"/>
    <flow id="f_10" begin="0.03" end="20000.00" probability="0.69999999999999995559" departPosLat="left" arrivalPosLat="left" from="E7" to="E25" via="E8 E11 E12 E13"/>
    <flow id="f_11" begin="0.03" end="20000.00" probability="0.05999999999999999778" departPosLat="left" from="E7" to="E25" via="E8 E11 E12 E13"/>
    <flow id="f_12" begin="0.03" end="20000.00" probability="0.05999999999999999778" departPosLat="right" from="E24" to="E25" via="E22 E23"/>
    <flow id="f_13" begin="0.03" end="20000.00" probability="0.08000000000000000167" departPosLat="right" arrivalPosLat="right" from="E24" to="E25" via="E22 E23"/>
    <flow id="f_14" begin="0.03" end="20000.00" probability="0.05999999999999999778" arrivalPosLat="right" from="E24" to="E25" via="E22 E23"/>
    <flow id="f_15" begin="0.03" end="20000.00" probability="0.05000000000000000278" from="E24" to="E25" via="E22 E23"/>
    <flow id="f_16" begin="0.03" end="20000.00" period="exp(0.02999999999999999889)" from="E0" to="E17" via="E1 E4 E5 E6"/>
    <flow id="f_17" begin="0.03" end="20000.00" period="exp(0.05000000000000000278)" arrivalPosLat="left" from="E0" to="E17" via="E1 E4 E5 E6"/>
    <flow id="f_18" begin="0.03" end="20000.00" period="exp(0.05000000000000000278)" departPosLat="left" arrivalPosLat="left" from="E0" to="E17" via="E1 E4 E5 E6"/>
    <flow id="f_27" begin="0.03" end="20000.00" period="exp(0.02000000000000000042)" departPosLat="left" arrivalPosLat="left" from="E7" to="E25" via="E8 E11 E12 E13"/>
    <flow id="f_28" begin="0.03" end="20000.00" period="exp(0.02999999999999999889)" departPosLat="right" arrivalPosLat="right" from="E24" to="E25" via="E22 E23"/>
    <flow id="f_29" begin="0.03" end="20000.00" period="exp(0.02999999999999999889)" arrivalPosLat="right" from="E24" to="E25" via="E22 E23"/>
    <flow id="f_4" begin="0.03" end="20000.00" probability="0.04000000000000000083" from="E18" to="E17" via="E15 E16"/>
    <flow id="f_5" begin="0.03" end="20000.00" probability="0.05000000000000000278" arrivalPosLat="right" from="E18" to="E17" via="E15 E16"/>
    <flow id="f_6" begin="0.03" end="20000.00" probability="0.05999999999999999778" departPosLat="right" arrivalPosLat="right" from="E18" to="E17" via="E15 E16"/>
    <flow id="f_7" begin="0.03" end="20000.00" probability="0.05999999999999999778" departPosLat="right" from="E18" to="E17" via="E15 E16"/>
    <flow id="f_8" begin="0.03" end="20000.00" probability="0.08000000000000000167" from="E7" to="E25" via="E8 E11 E12 E13"/>
    <flow id="f_9" begin="0.03" end="20000.00" probability="0.07000000000000000666" arrivalPosLat="left" from="E7" to="E25" via="E8 E11 E12 E13"/>
    <flow id="f_3" begin="0.05" end="20000.00" probability="0.02999999999999999889" departPosLat="left" from="E0" to="E17" via="E1 E4 E5 E6"/>
</routes>
