<?xml version="1.0" encoding="UTF-8"?>

<!-- generated on 2025-12-01T20:53:02.319195+02:00 by Eclipse SUMO sumo 1.25.0
-->

<sumoConfiguration xmlns:xsi="http://www.w3.org/2001/XMLSchema-instance" xsi:noNamespaceSchemaLocation="http://sumo.dlr.de/xsd/sumoConfiguration.xsd">

    <input>
        <net-file value="4.net.xml"/>
        <route-files value="4.rou.xml"/>
    </input>

</sumoConfiguration>
